<?xml version="1.0" encoding="UTF-8"?>

<!-- generated on 2022-04-11 09:39:44 by Eclipse SUMO netconvert Version 1.12.0
<configuration xmlns:xsi="http://www.w3.org/2001/XMLSchema-instance" xsi:noNamespaceSchemaLocation="http://sumo.dlr.de/xsd/netconvertConfiguration.xsd">

    <input>
        <osm-files value=".\bryan_test.osm"/>
    </input>

    <output>
        <output-file value="bryan_test.net.xml"/>
    </output>

    <projection>
        <proj.utm value="true"/>
    </projection>

    <report>
        <aggregate-warnings value="5"/>
    </report>

</configuration>
-->

<net version="1.9" junctionCornerDetail="5" limitTurnSpeed="5.50" xmlns:xsi="http://www.w3.org/2001/XMLSchema-instance" xsi:noNamespaceSchemaLocation="http://sumo.dlr.de/xsd/net_file.xsd">

    <location netOffset="-748558.58,-3394911.28" convBoundary="0.00,0.00,4524.39,3016.72" origBoundary="-96.405818,30.660389,-96.358105,30.687615" projParameter="+proj=utm +zone=14 +ellps=WGS84 +datum=WGS84 +units=m +no_defs"/>

    <type id="highway.bridleway" priority="1" numLanes="1" speed="2.78" allow="pedestrian" oneway="1" width="2.00"/>
    <type id="highway.bus_guideway" priority="1" numLanes="1" speed="27.78" allow="bus" oneway="1"/>
    <type id="highway.cycleway" priority="1" numLanes="1" speed="8.33" allow="bicycle" oneway="0" width="1.00"/>
    <type id="highway.footway" priority="1" numLanes="1" speed="2.78" allow="pedestrian" oneway="1" width="2.00"/>
    <type id="highway.ford" priority="1" numLanes="1" speed="2.78" allow="army" oneway="0"/>
    <type id="highway.living_street" priority="2" numLanes="1" speed="2.78" disallow="tram rail_urban rail rail_electric rail_fast ship" oneway="0"/>
    <type id="highway.motorway" priority="14" numLanes="2" speed="39.44" allow="private emergency authority army vip passenger hov taxi bus coach delivery truck trailer motorcycle evehicle custom1 custom2" oneway="1"/>
    <type id="highway.motorway_link" priority="9" numLanes="1" speed="22.22" allow="private emergency authority army vip passenger hov taxi bus coach delivery truck trailer motorcycle evehicle custom1 custom2" oneway="1"/>
    <type id="highway.path" priority="1" numLanes="1" speed="2.78" allow="pedestrian bicycle" oneway="0" width="2.00"/>
    <type id="highway.pedestrian" priority="1" numLanes="1" speed="2.78" allow="pedestrian" oneway="1" width="2.00"/>
    <type id="highway.primary" priority="12" numLanes="2" speed="27.78" disallow="tram rail_urban rail rail_electric rail_fast ship" oneway="0"/>
    <type id="highway.primary_link" priority="7" numLanes="1" speed="22.22" disallow="tram rail_urban rail rail_electric rail_fast ship" oneway="0"/>
    <type id="highway.raceway" priority="15" numLanes="2" speed="83.33" allow="vip" oneway="0"/>
    <type id="highway.residential" priority="3" numLanes="1" speed="13.89" disallow="tram rail_urban rail rail_electric rail_fast ship" oneway="0"/>
    <type id="highway.secondary" priority="11" numLanes="1" speed="27.78" disallow="tram rail_urban rail rail_electric rail_fast ship" oneway="0"/>
    <type id="highway.secondary_link" priority="6" numLanes="1" speed="22.22" disallow="tram rail_urban rail rail_electric rail_fast ship" oneway="0"/>
    <type id="highway.service" priority="1" numLanes="1" speed="5.56" allow="pedestrian delivery bicycle" oneway="0"/>
    <type id="highway.stairs" priority="1" numLanes="1" speed="1.39" allow="pedestrian" oneway="1" width="2.00"/>
    <type id="highway.step" priority="1" numLanes="1" speed="1.39" allow="pedestrian" oneway="1" width="2.00"/>
    <type id="highway.steps" priority="1" numLanes="1" speed="1.39" allow="pedestrian" oneway="1" width="2.00"/>
    <type id="highway.tertiary" priority="10" numLanes="1" speed="22.22" disallow="tram rail_urban rail rail_electric rail_fast ship" oneway="0"/>
    <type id="highway.tertiary_link" priority="5" numLanes="1" speed="22.22" disallow="tram rail_urban rail rail_electric rail_fast ship" oneway="0"/>
    <type id="highway.track" priority="1" numLanes="1" speed="5.56" allow="pedestrian motorcycle moped bicycle" oneway="0"/>
    <type id="highway.trunk" priority="13" numLanes="2" speed="27.78" disallow="pedestrian bicycle tram rail_urban rail rail_electric rail_fast ship" oneway="0"/>
    <type id="highway.trunk_link" priority="8" numLanes="1" speed="22.22" disallow="pedestrian bicycle tram rail_urban rail rail_electric rail_fast ship" oneway="0"/>
    <type id="highway.unclassified" priority="4" numLanes="1" speed="13.89" disallow="tram rail_urban rail rail_electric rail_fast ship" oneway="0"/>
    <type id="highway.unsurfaced" priority="1" numLanes="1" speed="8.33" disallow="tram rail_urban rail rail_electric rail_fast ship" oneway="0"/>
    <type id="railway.highspeed" priority="21" numLanes="1" speed="69.44" allow="rail_fast" oneway="1"/>
    <type id="railway.light_rail" priority="19" numLanes="1" speed="27.78" allow="rail_urban" oneway="1"/>
    <type id="railway.preserved" priority="16" numLanes="1" speed="27.78" allow="rail" oneway="1"/>
    <type id="railway.rail" priority="20" numLanes="1" speed="44.44" allow="rail" oneway="1"/>
    <type id="railway.subway" priority="18" numLanes="1" speed="27.78" allow="rail_urban" oneway="1"/>
    <type id="railway.tram" priority="17" numLanes="1" speed="13.89" allow="tram" oneway="1"/>

    <edge id=":1997919230_0" function="internal">
        <lane id=":1997919230_0_0" index="0" disallow="tram rail_urban rail rail_electric rail_fast ship" speed="6.52" length="9.04" shape="3100.69,1692.86 3100.11,1690.44 3098.90,1688.79 3097.06,1687.90 3094.59,1687.78"/>
    </edge>
    <edge id=":1997919230_1" function="internal">
        <lane id=":1997919230_1_0" index="0" disallow="tram rail_urban rail rail_electric rail_fast ship" speed="13.41" length="14.40" shape="3100.69,1692.86 3099.36,1678.51"/>
    </edge>
    <edge id=":1997919230_2" function="internal">
        <lane id=":1997919230_2_0" index="0" disallow="tram rail_urban rail rail_electric rail_fast ship" speed="7.28" length="11.75" shape="3100.69,1692.86 3100.68,1688.99 3101.47,1686.16 3103.09,1684.38 3105.51,1683.64"/>
    </edge>
    <edge id=":1997919230_3" function="internal">
        <lane id=":1997919230_3_0" index="0" disallow="tram rail_urban rail rail_electric rail_fast ship" speed="13.89" length="11.21" shape="3105.76,1686.83 3094.59,1687.78"/>
    </edge>
    <edge id=":1997919230_4" function="internal">
        <lane id=":1997919230_4_0" index="0" disallow="tram rail_urban rail rail_electric rail_fast ship" speed="7.37" length="11.77" shape="3105.76,1686.83 3103.25,1686.47 3101.35,1684.97 3100.05,1682.31 3099.36,1678.51"/>
    </edge>
    <edge id=":1997919230_5" function="internal">
        <lane id=":1997919230_5_0" index="0" disallow="tram rail_urban rail rail_electric rail_fast ship" speed="3.65" length="4.67" shape="3105.76,1686.83 3104.50,1686.13 3104.04,1685.36 3104.38,1684.53 3105.51,1683.64"/>
    </edge>
    <edge id=":1997919230_6" function="internal">
        <lane id=":1997919230_6_0" index="0" disallow="tram rail_urban rail rail_electric rail_fast ship" speed="6.52" length="9.02" shape="3094.29,1684.60 3096.70,1684.02 3098.34,1682.81 3099.23,1680.98 3099.36,1678.51"/>
    </edge>
    <edge id=":1997919230_7" function="internal">
        <lane id=":1997919230_7_0" index="0" disallow="tram rail_urban rail rail_electric rail_fast ship" speed="13.89" length="11.26" shape="3094.29,1684.60 3105.51,1683.64"/>
    </edge>
    <edge id=":1997919230_8" function="internal">
        <lane id=":1997919230_8_0" index="0" disallow="tram rail_urban rail rail_electric rail_fast ship" speed="3.65" length="4.67" shape="3094.29,1684.60 3095.56,1685.28 3096.03,1686.04 3095.71,1686.87 3094.59,1687.78"/>
    </edge>
    <edge id=":1997919242_0" function="internal">
        <lane id=":1997919242_0_0" index="0" disallow="tram rail_urban rail rail_electric rail_fast ship" speed="6.48" length="9.03" shape="3082.24,1482.91 3081.68,1480.49 3080.48,1478.85 3078.64,1477.97 3076.16,1477.87"/>
    </edge>
    <edge id=":1997919242_1" function="internal">
        <lane id=":1997919242_1_0" index="0" disallow="tram rail_urban rail rail_electric rail_fast ship" speed="13.41" length="14.43" shape="3082.24,1482.91 3080.93,1468.54"/>
    </edge>
    <edge id=":1997919242_2" function="internal">
        <lane id=":1997919242_2_0" index="0" disallow="tram rail_urban rail rail_electric rail_fast ship" speed="7.38" length="11.79" shape="3082.24,1482.91 3082.26,1479.03 3083.06,1476.17 3084.66,1474.35 3087.05,1473.56"/>
    </edge>
    <edge id=":1997919242_3" function="internal">
        <lane id=":1997919242_3_0" index="0" disallow="tram rail_urban rail rail_electric rail_fast ship" speed="13.89" length="11.26" shape="3087.37,1476.74 3076.16,1477.87"/>
    </edge>
    <edge id=":1997919242_4" function="internal">
        <lane id=":1997919242_4_0" index="0" disallow="tram rail_urban rail rail_electric rail_fast ship" speed="7.32" length="11.74" shape="3087.37,1476.74 3084.87,1476.44 3082.96,1474.97 3081.65,1472.34 3080.93,1468.54"/>
    </edge>
    <edge id=":1997919242_5" function="internal">
        <lane id=":1997919242_5_0" index="0" disallow="tram rail_urban rail rail_electric rail_fast ship" speed="3.65" length="4.67" shape="3087.37,1476.74 3086.09,1476.06 3085.62,1475.31 3085.93,1474.47 3087.05,1473.56"/>
    </edge>
    <edge id=":1997919242_6" function="internal">
        <lane id=":1997919242_6_0" index="0" disallow="tram rail_urban rail rail_electric rail_fast ship" speed="6.54" length="9.10" shape="3075.84,1474.69 3078.27,1474.09 3079.93,1472.86 3080.82,1471.01 3080.93,1468.54"/>
    </edge>
    <edge id=":1997919242_7" function="internal">
        <lane id=":1997919242_7_0" index="0" disallow="tram rail_urban rail rail_electric rail_fast ship" speed="13.89" length="11.26" shape="3075.84,1474.69 3087.05,1473.56"/>
    </edge>
    <edge id=":1997919242_8" function="internal">
        <lane id=":1997919242_8_0" index="0" disallow="tram rail_urban rail rail_electric rail_fast ship" speed="3.65" length="4.67" shape="3075.84,1474.69 3077.12,1475.36 3077.59,1476.12 3077.28,1476.95 3076.16,1477.87"/>
    </edge>
    <edge id=":1997919252_0" function="internal">
        <lane id=":1997919252_0_0" index="0" disallow="tram rail_urban rail rail_electric rail_fast ship" speed="6.49" length="9.03" shape="3091.71,1592.10 3091.14,1589.68 3089.94,1588.04 3088.10,1587.16 3085.63,1587.04"/>
    </edge>
    <edge id=":1997919252_1" function="internal">
        <lane id=":1997919252_1_0" index="0" disallow="tram rail_urban rail rail_electric rail_fast ship" speed="13.41" length="20.83" shape="3091.71,1592.10 3089.89,1571.35"/>
    </edge>
    <edge id=":1997919252_2" function="internal">
        <lane id=":1997919252_2_0" index="0" disallow="tram rail_urban rail rail_electric rail_fast ship" speed="8.14" length="14.64" shape="3091.71,1592.10 3091.60,1586.83 3092.32,1582.99 3093.88,1580.58 3096.27,1579.59"/>
    </edge>
    <edge id=":1997919252_3" function="internal">
        <lane id=":1997919252_3_0" index="0" disallow="tram rail_urban rail rail_electric rail_fast ship" speed="27.78" length="11.31" shape="3096.88,1585.96 3085.63,1587.04"/>
        <lane id=":1997919252_3_1" index="1" disallow="tram rail_urban rail rail_electric rail_fast ship" speed="27.78" length="11.31" shape="3096.58,1582.78 3085.32,1583.86"/>
    </edge>
    <edge id=":1997919252_5" function="internal">
        <lane id=":1997919252_5_0" index="0" disallow="tram rail_urban rail rail_electric rail_fast ship" speed="8.08" length="2.39" shape="3096.58,1582.78 3094.23,1582.31"/>
    </edge>
    <edge id=":1997919252_6" function="internal">
        <lane id=":1997919252_6_0" index="0" disallow="tram rail_urban rail rail_electric rail_fast ship" speed="3.65" length="1.44" shape="3096.58,1582.78 3095.31,1582.10"/>
    </edge>
    <edge id=":1997919252_11" function="internal">
        <lane id=":1997919252_11_0" index="0" disallow="tram rail_urban rail rail_electric rail_fast ship" speed="8.08" length="12.21" shape="3094.23,1582.31 3094.04,1582.27 3092.08,1580.19 3090.70,1576.55 3089.89,1571.35"/>
    </edge>
    <edge id=":1997919252_12" function="internal">
        <lane id=":1997919252_12_0" index="0" disallow="tram rail_urban rail rail_electric rail_fast ship" speed="3.65" length="3.23" shape="3095.31,1582.10 3094.83,1581.34 3095.15,1580.50 3096.27,1579.59"/>
    </edge>
    <edge id=":1997919252_7" function="internal">
        <lane id=":1997919252_7_0" index="0" disallow="tram rail_urban rail rail_electric rail_fast ship" speed="6.56" length="9.14" shape="3084.71,1577.49 3087.16,1576.90 3088.84,1575.68 3089.75,1573.83 3089.89,1571.35"/>
    </edge>
    <edge id=":1997919252_8" function="internal">
        <lane id=":1997919252_8_0" index="0" disallow="tram rail_urban rail rail_electric rail_fast ship" speed="27.78" length="11.30" shape="3084.71,1577.49 3095.97,1576.41"/>
        <lane id=":1997919252_8_1" index="1" disallow="tram rail_urban rail rail_electric rail_fast ship" speed="27.78" length="11.30" shape="3085.02,1580.67 3096.27,1579.59"/>
    </edge>
    <edge id=":1997919252_10" function="internal">
        <lane id=":1997919252_10_0" index="0" disallow="tram rail_urban rail rail_electric rail_fast ship" speed="3.65" length="1.44" shape="3085.02,1580.67 3086.29,1581.35"/>
    </edge>
    <edge id=":1997919252_13" function="internal">
        <lane id=":1997919252_13_0" index="0" disallow="tram rail_urban rail rail_electric rail_fast ship" speed="3.65" length="3.23" shape="3086.29,1581.35 3086.76,1582.11 3086.44,1582.95 3085.32,1583.86"/>
    </edge>
    <edge id=":1997919278_0" function="internal">
        <lane id=":1997919278_0_0" index="0" disallow="tram rail_urban rail rail_electric rail_fast ship" speed="6.50" length="9.05" shape="3103.87,1475.18 3101.45,1475.73 3099.80,1476.93 3098.90,1478.76 3098.76,1481.24"/>
    </edge>
    <edge id=":1997919278_1" function="internal">
        <lane id=":1997919278_1_0" index="0" disallow="tram rail_urban rail rail_electric rail_fast ship" speed="13.89" length="11.70" shape="3103.87,1475.18 3092.22,1476.25"/>
    </edge>
    <edge id=":1997919278_2" function="internal">
        <lane id=":1997919278_2_0" index="0" disallow="tram rail_urban rail rail_electric rail_fast ship" speed="3.65" length="4.67" shape="3103.87,1475.18 3102.61,1474.48 3102.14,1473.72 3102.48,1472.89 3103.61,1471.99"/>
    </edge>
    <edge id=":1997919278_3" function="internal">
        <lane id=":1997919278_3_0" index="0" disallow="tram rail_urban rail rail_electric rail_fast ship" speed="7.24" length="9.91" shape="3096.26,1466.80 3097.27,1469.25 3098.83,1470.93 3100.95,1471.85 3103.61,1471.99"/>
    </edge>
    <edge id=":1997919278_4" function="internal">
        <lane id=":1997919278_4_0" index="0" disallow="tram rail_urban rail rail_electric rail_fast ship" speed="13.41" length="14.67" shape="3096.26,1466.80 3097.12,1470.40 3097.82,1473.97 3098.37,1477.57 3098.76,1481.24"/>
    </edge>
    <edge id=":1997919278_5" function="internal">
        <lane id=":1997919278_5_0" index="0" disallow="tram rail_urban rail rail_electric rail_fast ship" speed="7.04" length="12.02" shape="3096.26,1466.80 3096.87,1470.70 3096.39,1473.57 3094.85,1475.42 3092.22,1476.25"/>
    </edge>
    <edge id=":1997919278_6" function="internal">
        <lane id=":1997919278_6_0" index="0" disallow="tram rail_urban rail rail_electric rail_fast ship" speed="13.89" length="11.76" shape="3091.90,1473.07 3103.61,1471.99"/>
    </edge>
    <edge id=":1997919278_7" function="internal">
        <lane id=":1997919278_7_0" index="0" disallow="tram rail_urban rail rail_electric rail_fast ship" speed="7.39" length="12.09" shape="3091.90,1473.07 3094.62,1473.35 3096.67,1474.80 3098.05,1477.43 3098.76,1481.24"/>
    </edge>
    <edge id=":1997919278_8" function="internal">
        <lane id=":1997919278_8_0" index="0" disallow="tram rail_urban rail rail_electric rail_fast ship" speed="3.65" length="4.67" shape="3091.90,1473.07 3093.17,1473.74 3093.65,1474.50 3093.33,1475.33 3092.22,1476.25"/>
    </edge>
    <edge id=":1997919297_0" function="internal">
        <lane id=":1997919297_0_0" index="0" disallow="tram rail_urban rail rail_electric rail_fast ship" speed="6.52" length="9.07" shape="3135.51,1992.62 3134.95,1990.20 3133.74,1988.54 3131.90,1987.64 3129.41,1987.50"/>
    </edge>
    <edge id=":1997919297_1" function="internal">
        <lane id=":1997919297_1_0" index="0" disallow="tram rail_urban rail rail_electric rail_fast ship" speed="13.41" length="14.43" shape="3135.51,1992.62 3134.20,1978.24"/>
    </edge>
    <edge id=":1997919297_2" function="internal">
        <lane id=":1997919297_2_0" index="0" disallow="tram rail_urban rail rail_electric rail_fast ship" speed="7.07" length="10.93" shape="3135.51,1992.62 3135.45,1988.75 3136.05,1985.94 3137.31,1984.19 3139.22,1983.49"/>
    </edge>
    <edge id=":1997919297_3" function="internal">
        <lane id=":1997919297_3_0" index="0" disallow="tram rail_urban rail rail_electric rail_fast ship" speed="13.89" length="10.08" shape="3139.46,1986.68 3129.41,1987.50"/>
    </edge>
    <edge id=":1997919297_4" function="internal">
        <lane id=":1997919297_4_0" index="0" disallow="tram rail_urban rail rail_electric rail_fast ship" speed="7.16" length="10.97" shape="3139.46,1986.68 3137.47,1986.28 3135.93,1984.74 3134.84,1982.06 3134.20,1978.24"/>
    </edge>
    <edge id=":1997919297_5" function="internal">
        <lane id=":1997919297_5_0" index="0" disallow="tram rail_urban rail rail_electric rail_fast ship" speed="3.65" length="4.67" shape="3139.46,1986.68 3138.21,1985.97 3137.75,1985.21 3138.08,1984.38 3139.22,1983.49"/>
    </edge>
    <edge id=":1997919297_6" function="internal">
        <lane id=":1997919297_6_0" index="0" disallow="tram rail_urban rail rail_electric rail_fast ship" speed="6.49" length="9.03" shape="3129.14,1984.31 3131.55,1983.75 3133.20,1982.55 3134.08,1980.72 3134.20,1978.24"/>
    </edge>
    <edge id=":1997919297_7" function="internal">
        <lane id=":1997919297_7_0" index="0" disallow="tram rail_urban rail rail_electric rail_fast ship" speed="13.89" length="10.12" shape="3129.14,1984.31 3139.22,1983.49"/>
    </edge>
    <edge id=":1997919297_8" function="internal">
        <lane id=":1997919297_8_0" index="0" disallow="tram rail_urban rail rail_electric rail_fast ship" speed="3.65" length="4.67" shape="3129.14,1984.31 3130.40,1985.01 3130.87,1985.77 3130.54,1986.60 3129.41,1987.50"/>
    </edge>
    <edge id=":1997919299_0" function="internal">
        <lane id=":1997919299_0_0" index="0" disallow="tram rail_urban rail rail_electric rail_fast ship" speed="6.55" length="9.09" shape="3125.98,1892.01 3125.39,1889.60 3124.17,1887.94 3122.31,1887.05 3119.82,1886.91"/>
    </edge>
    <edge id=":1997919299_1" function="internal">
        <lane id=":1997919299_1_0" index="0" disallow="tram rail_urban rail rail_electric rail_fast ship" speed="13.41" length="14.42" shape="3125.98,1892.01 3124.60,1877.65"/>
    </edge>
    <edge id=":1997919299_2" function="internal">
        <lane id=":1997919299_2_0" index="0" disallow="tram rail_urban rail rail_electric rail_fast ship" speed="6.98" length="10.60" shape="3125.98,1892.01 3125.86,1888.15 3126.34,1885.34 3127.42,1883.59 3129.10,1882.88"/>
    </edge>
    <edge id=":1997919299_3" function="internal">
        <lane id=":1997919299_3_0" index="0" disallow="tram rail_urban rail rail_electric rail_fast ship" speed="13.89" length="9.61" shape="3129.39,1886.07 3119.82,1886.91"/>
    </edge>
    <edge id=":1997919299_4" function="internal">
        <lane id=":1997919299_4_0" index="0" disallow="tram rail_urban rail rail_electric rail_fast ship" speed="7.01" length="10.62" shape="3129.39,1886.07 3127.61,1885.68 3126.22,1884.14 3125.22,1881.47 3124.60,1877.65"/>
    </edge>
    <edge id=":1997919299_5" function="internal">
        <lane id=":1997919299_5_0" index="0" disallow="tram rail_urban rail rail_electric rail_fast ship" speed="3.65" length="4.67" shape="3129.39,1886.07 3128.13,1885.38 3127.66,1884.62 3127.98,1883.79 3129.10,1882.88"/>
    </edge>
    <edge id=":1997919299_6" function="internal">
        <lane id=":1997919299_6_0" index="0" disallow="tram rail_urban rail rail_electric rail_fast ship" speed="6.49" length="9.03" shape="3119.54,1883.73 3121.96,1883.16 3123.61,1881.97 3124.49,1880.13 3124.60,1877.65"/>
    </edge>
    <edge id=":1997919299_7" function="internal">
        <lane id=":1997919299_7_0" index="0" disallow="tram rail_urban rail rail_electric rail_fast ship" speed="13.89" length="9.60" shape="3119.54,1883.73 3129.10,1882.88"/>
    </edge>
    <edge id=":1997919299_8" function="internal">
        <lane id=":1997919299_8_0" index="0" disallow="tram rail_urban rail rail_electric rail_fast ship" speed="3.65" length="4.67" shape="3119.54,1883.73 3120.81,1884.42 3121.28,1885.18 3120.95,1886.01 3119.82,1886.91"/>
    </edge>
    <edge id=":2021841882_0" function="internal">
        <lane id=":2021841882_0_0" index="0" disallow="tram rail_urban rail rail_electric rail_fast ship" speed="22.22" length="6.30" shape="3193.04,1779.89 3186.78,1780.56"/>
    </edge>
    <edge id=":2021841882_1" function="internal">
        <lane id=":2021841882_1_0" index="0" allow="rail" speed="44.44" length="9.45" shape="3189.32,1773.93 3190.17,1783.34"/>
    </edge>
    <edge id=":2021841882_2" function="internal">
        <lane id=":2021841882_2_0" index="0" disallow="tram rail_urban rail rail_electric rail_fast ship" speed="22.22" length="6.30" shape="3186.44,1777.38 3192.71,1776.71"/>
    </edge>
    <edge id=":2021841901_0" function="internal">
        <lane id=":2021841901_0_0" index="0" disallow="tram rail_urban rail rail_electric rail_fast ship" speed="13.89" length="6.45" shape="3202.73,1878.48 3196.33,1879.29"/>
    </edge>
    <edge id=":2021841901_1" function="internal">
        <lane id=":2021841901_1_0" index="0" allow="rail" speed="44.44" length="9.49" shape="3198.79,1872.63 3199.71,1882.08"/>
    </edge>
    <edge id=":2021841901_2" function="internal">
        <lane id=":2021841901_2_0" index="0" disallow="tram rail_urban rail rail_electric rail_fast ship" speed="13.89" length="6.31" shape="3196.00,1876.11 3202.26,1875.32"/>
    </edge>
    <edge id=":2021841912_0" function="internal">
        <lane id=":2021841912_0_0" index="0" disallow="tram rail_urban rail rail_electric rail_fast ship" speed="13.89" length="6.22" shape="3183.87,1678.93 3177.67,1679.54"/>
    </edge>
    <edge id=":2021841912_1" function="internal">
        <lane id=":2021841912_1_0" index="0" allow="rail" speed="44.44" length="9.42" shape="3180.17,1672.95 3181.06,1682.32"/>
    </edge>
    <edge id=":2021841912_2" function="internal">
        <lane id=":2021841912_2_0" index="0" disallow="tram rail_urban rail rail_electric rail_fast ship" speed="13.89" length="6.27" shape="3177.34,1676.35 3183.58,1675.74"/>
    </edge>
    <edge id=":222454981_0" function="internal">
        <lane id=":222454981_0_0" index="0" disallow="tram rail_urban rail rail_electric rail_fast ship" speed="3.65" length="4.67" shape="4404.46,831.06 4405.89,830.84 4406.72,831.16 4406.96,832.02 4406.62,833.42"/>
    </edge>
    <edge id=":222454988_0" function="internal">
        <lane id=":222454988_0_0" index="0" disallow="tram rail_urban rail rail_electric rail_fast ship" speed="3.65" length="4.67" shape="4355.80,763.40 4357.24,763.38 4358.02,763.81 4358.15,764.70 4357.61,766.04"/>
    </edge>
    <edge id=":222455001_0" function="internal">
        <lane id=":222455001_0_0" index="0" disallow="tram rail_urban rail rail_electric rail_fast ship" speed="3.65" length="4.67" shape="4179.37,518.20 4180.79,518.45 4181.47,519.02 4181.43,519.92 4180.65,521.13"/>
    </edge>
    <edge id=":222485795_0" function="internal">
        <lane id=":222485795_0_0" index="0" disallow="tram rail_urban rail rail_electric rail_fast ship" speed="3.65" length="4.67" shape="3348.16,680.95 3347.96,679.52 3348.29,678.69 3349.16,678.46 3350.55,678.82"/>
    </edge>
    <edge id=":222491317_0" function="internal">
        <lane id=":222491317_0_0" index="0" disallow="tram rail_urban rail rail_electric rail_fast ship" speed="13.41" length="9.38" shape="3141.11,1980.23 3141.91,1989.58"/>
    </edge>
    <edge id=":222491317_1" function="internal">
        <lane id=":222491317_1_0" index="0" disallow="tram rail_urban rail rail_electric rail_fast ship" speed="5.82" length="7.03" shape="3141.11,1980.23 3141.21,1982.99 3141.00,1984.98 3140.48,1986.21 3139.66,1986.67"/>
    </edge>
    <edge id=":222491317_2" function="internal">
        <lane id=":222491317_2_0" index="0" disallow="tram rail_urban rail rail_electric rail_fast ship" speed="5.85" length="7.01" shape="3139.42,1983.48 3140.29,1983.80 3141.00,1984.93 3141.54,1986.86 3141.91,1989.58"/>
    </edge>
    <edge id=":222491317_3" function="internal">
        <lane id=":222491317_3_0" index="0" disallow="tram rail_urban rail rail_electric rail_fast ship" speed="3.65" length="4.67" shape="3139.42,1983.48 3140.68,1984.18 3141.14,1984.95 3140.80,1985.78 3139.66,1986.67"/>
    </edge>
    <edge id=":222491319_0" function="internal">
        <lane id=":222491319_0_0" index="0" disallow="tram rail_urban rail rail_electric rail_fast ship" speed="6.56" length="9.12" shape="3071.05,1998.22 3070.45,1995.79 3069.23,1994.13 3067.38,1993.23 3064.89,1993.09"/>
    </edge>
    <edge id=":222491319_1" function="internal">
        <lane id=":222491319_1_0" index="0" disallow="tram rail_urban rail rail_electric rail_fast ship" speed="22.22" length="14.46" shape="3071.05,1998.22 3069.67,1983.83"/>
    </edge>
    <edge id=":222491319_2" function="internal">
        <lane id=":222491319_2_0" index="0" disallow="tram rail_urban rail rail_electric rail_fast ship" speed="7.98" length="4.10" shape="3071.05,1998.22 3071.22,1994.32 3071.30,1994.15"/>
    </edge>
    <edge id=":222491319_3" function="internal">
        <lane id=":222491319_3_0" index="0" disallow="tram rail_urban rail rail_electric rail_fast ship" speed="3.65" length="1.44" shape="3071.05,1998.22 3071.72,1996.95"/>
    </edge>
    <edge id=":222491319_16" function="internal">
        <lane id=":222491319_16_0" index="0" disallow="tram rail_urban rail rail_electric rail_fast ship" speed="7.98" length="10.14" shape="3071.30,1994.15 3072.60,1991.42 3075.20,1989.53 3079.00,1988.65"/>
    </edge>
    <edge id=":222491319_17" function="internal">
        <lane id=":222491319_17_0" index="0" disallow="tram rail_urban rail rail_electric rail_fast ship" speed="3.65" length="3.23" shape="3071.72,1996.95 3072.48,1996.47 3073.32,1996.79 3074.23,1997.91"/>
    </edge>
    <edge id=":222491319_4" function="internal">
        <lane id=":222491319_4_0" index="0" disallow="tram rail_urban rail rail_electric rail_fast ship" speed="6.48" length="9.03" shape="3079.28,1991.83 3076.86,1992.39 3075.22,1993.59 3074.34,1995.43 3074.23,1997.91"/>
    </edge>
    <edge id=":222491319_5" function="internal">
        <lane id=":222491319_5_0" index="0" disallow="tram rail_urban rail rail_electric rail_fast ship" speed="13.89" length="14.45" shape="3079.28,1991.83 3064.89,1993.09"/>
    </edge>
    <edge id=":222491319_6" function="internal">
        <lane id=":222491319_6_0" index="0" disallow="tram rail_urban rail rail_electric rail_fast ship" speed="8.03" length="14.24" shape="3079.28,1991.83 3075.38,1991.62 3072.48,1990.21 3070.58,1987.61 3069.67,1983.83"/>
    </edge>
    <edge id=":222491319_7" function="internal">
        <lane id=":222491319_7_0" index="0" disallow="tram rail_urban rail rail_electric rail_fast ship" speed="3.65" length="4.67" shape="3079.28,1991.83 3078.02,1991.14 3077.55,1990.38 3077.88,1989.55 3079.00,1988.65"/>
    </edge>
    <edge id=":222491319_8" function="internal">
        <lane id=":222491319_8_0" index="0" disallow="tram rail_urban rail rail_electric rail_fast ship" speed="6.54" length="9.10" shape="3072.86,1983.53 3073.44,1985.95 3074.66,1987.61 3076.51,1988.51 3079.00,1988.65"/>
    </edge>
    <edge id=":222491319_9" function="internal">
        <lane id=":222491319_9_0" index="0" disallow="tram rail_urban rail rail_electric rail_fast ship" speed="22.22" length="14.44" shape="3072.86,1983.53 3074.23,1997.91"/>
    </edge>
    <edge id=":222491319_10" function="internal">
        <lane id=":222491319_10_0" index="0" disallow="tram rail_urban rail rail_electric rail_fast ship" speed="7.99" length="4.05" shape="3072.86,1983.53 3072.67,1987.42 3072.60,1987.56"/>
    </edge>
    <edge id=":222491319_11" function="internal">
        <lane id=":222491319_11_0" index="0" disallow="tram rail_urban rail rail_electric rail_fast ship" speed="3.65" length="1.44" shape="3072.86,1983.53 3072.18,1984.80"/>
    </edge>
    <edge id=":222491319_18" function="internal">
        <lane id=":222491319_18_0" index="0" disallow="tram rail_urban rail rail_electric rail_fast ship" speed="7.99" length="10.16" shape="3072.60,1987.56 3071.27,1990.31 3068.68,1992.20 3064.89,1993.09"/>
    </edge>
    <edge id=":222491319_19" function="internal">
        <lane id=":222491319_19_0" index="0" disallow="tram rail_urban rail rail_electric rail_fast ship" speed="3.65" length="3.23" shape="3072.18,1984.80 3071.42,1985.27 3070.58,1984.95 3069.67,1983.83"/>
    </edge>
    <edge id=":222491319_12" function="internal">
        <lane id=":222491319_12_0" index="0" disallow="tram rail_urban rail rail_electric rail_fast ship" speed="6.50" length="9.03" shape="3064.61,1989.90 3067.02,1989.34 3068.67,1988.14 3069.55,1986.30 3069.67,1983.83"/>
    </edge>
    <edge id=":222491319_13" function="internal">
        <lane id=":222491319_13_0" index="0" disallow="tram rail_urban rail rail_electric rail_fast ship" speed="13.89" length="14.45" shape="3064.61,1989.90 3079.00,1988.65"/>
    </edge>
    <edge id=":222491319_14" function="internal">