<?xml version="1.0" encoding="UTF-8"?>

<!-- generated on 2022-04-11 09:53:27 by Eclipse SUMO duarouter Version 1.12.0
<configuration xmlns:xsi="http://www.w3.org/2001/XMLSchema-instance" xsi:noNamespaceSchemaLocation="http://sumo.dlr.de/xsd/duarouterConfiguration.xsd">

    <input>
        <net-file value=".\2022-03-17-09-19-01\bryan_test.net.xml"/>
        <route-files value=".\2022-03-17-09-19-01\trips.xml"/>
    </input>

    <output>
        <output-file value=".\2022-03-17-09-19-01\routes.rou.xml"/>
        <alternatives-output value=".\2022-03-17-09-19-01\routes.rou.alt.xml"/>
    </output>

    <time>
        <begin value="0"/>
        <end value="2000"/>
    </time>

    <report>
        <no-warnings value="true"/>
        <ignore-errors value="true"/>
        <no-step-log value="true"/>
    </report>

</configuration>
-->

<routes xmlns:xsi="http://www.w3.org/2001/XMLSchema-instance" xsi:noNamespaceSchemaLocation="http://sumo.dlr.de/xsd/routes_file.xsd">
    <vType id="type1" length="10" width="5" height="5"/>
    <vehicle id="0" depart="0.00" type="type1">
        <route edges="20724307#0 -20724307#0 895804527#0 895804527#1 20720463#0 20720463#1 20720463#2 20720463#3 20720463#4 20720458#0 20720458#1 20720458#2 -20725535#0 -20726399#2 -20726399#1 -20719744#3 -20719744#2"/>
    </vehicle>
    <vehicle id="1" depart="0.00" type="type1">
        <route edges="-20728486#2 -20728486#1 -20728486#0 20722075#0 20722075#1 -20723648#2 -20723648#1 -20723648#0 -895804525#7 -895804525#6 -895804525#5 -895804525#4 -895804525#3 -895804525#2 -895804525#1 -895804525#0 20722850#0 -20727043#1"/>
    </vehicle>
    <vehicle id="2" depart="0.00" type="type1">
        <route edges="20727043#2 -20727043#2 -20727043#1 -20727043#0 895804526 895804527#0 895804527#1 20720463#0 20720463#1 20720463#2 20720463#3 20720463#4 895453908#0 895453908#1 895453908#2 895453908#3 895453908#4 145323481#0 145323481#1 20725535#3"/>
    </vehicle>
    <vehicle id="3" depart="0.00" type="type1">
        <route edges="575745867#1 -575745867#1 -575745867#0 -20722075#1"/>
    </vehicle>
    <vehicle id="4" depart="0.00" type="type1">
        <route edges="-618605760#1 20729595#2 -20720458#6 -20720458#5 -20720458#4 -20720458#3 -20720458#2 -20720458#1 -20720458#0 -20720463#4 -20720463#3 -20720463#2 -20720463#1 -20720463#0 -895804527#1 -895804527#0 -895413635#3 -895413635#2 -895413635#1 -895413635#0 -895413636 20724580#0 20724580#1 20724580#2 20724580#3 20724580#4 20724580#5 20724580#6 20724580#7 20724580#8 20724580#9 20719775#2 -20719775#2"/>
    </vehicle>
    <vehicle id="5" depart="0.00" type="type1">
        <route edges="-20725940#5 -324056351#1 -324056351#0 -582400375 324056354 324056355 324056352 324056356#0 324056356#1 324056356#2 324056356#3 324056356#4 324056356#5 145323481#0 145323481#1 145323481#2 20720402#2"/>
    </vehicle>
    <vehicle id="6" depart="0.00" type="type1">
        <route edges="-20719744#0 -575745867#5 -575745867#4 -575745867#3 -575745867#2 -575745867#1 -575745867#0 -20722075#1 -20722075#0 -895413632 895413634 -20720463#4 -20720463#3 -20720463#2 -20720463#1 -20720463#0 -895804527#1 -895804527#0 -895413635#3 -895413635#2 -895413635#1 20725940#1 20725940#2 20725940#3 -20725940#3"/>
    </vehicle>
    <vehicle id="7" depart="0.00" type="type1">
        <route edges="20724580#4 20724580#5 20724580#6 -20724580#6 -20724580#5 -20724580#4 -20724580#3 -20724580#2 -20724580#1 -20724580#0 895413636 -20724294#4 -20724294#3 20720966#1 20720966#2 20720966#3 20720966#4"/>
    </vehicle>
    <vehicle id="8" depart="0.00" type="type1">
        <route edges="-20725940#6 -895413645#2 -20724307#2 -20724307#1 -20724307#0 -895804526 20727043#0 20727043#1 -20722850#0 -20722896#3 -20722896#2 -20722896#1 -20722896#0 20722896#0 20722896#1 20722896#2"/>
    </vehicle>
    <vehicle id="9" depart="0.00" type="type1">
        <route edges="20731195#0 20731195#1 20731195#2 -20731195#2 -20731195#1 -20731195#0 20720463#2 20720463#3 20720463#4 20720458#0 20720458#1 20720458#2 -20725535#0 -20726399#2 -20726399#1 -20719744#3 -20719744#2 -20719744#1 -20718094#1 -20718094#0"/>
    </vehicle>
    <vehicle id="10" depart="0.00" type="type1">
        <route edges="20730500#7 -20720402#2 -145323481#2 -145323481#1 -145323481#0 -895453908#4 -895453908#3 -895453908#2 -895453908#1 -895453908#0 -20720463#4 -20720463#3 -20720463#2 -20720463#1 -20720463#0 -895804527#1 -895804527#0 -895413635#3 -895413635#2 -895413635#1 -895413635#0 -895413636 20724580#0 20724580#1 20724580#2 20724580#3 20724580#4 20724580#5 20724580#6 618584809#0 20726188#2"/>
    </vehicle>
    <vehicle id="11" depart="0.00" type="type1">
        <route edges="-20732189#6 -20732189#5 -895453901#3 -895453901#2 -895453901#1 -895453901#0 -20722075#3 -20722075#2 -20722075#1 -20722075#0 -895413632 895413634 20720458#0 20720458#1 20720458#2 20720458#3 20720458#4 -20724743#1"/>
    </vehicle>
    <vehicle id="12" depart="0.00" type="type1">
        <route edges="895413637#3 895413637#4 20725940#0 895413635#1 895413635#2 895413635#3 895804527#0 895804527#1 20720463#0 20720463#1 20720463#2 20720463#3 20720463#4 895453908#0 895453908#1 895453908#2 895453908#3 895453908#4 -324056356#5"/>
    </vehicle>
    <vehicle id="13" depart="0.00" type="type1"> 
        <route edges="-20721607#6 -20721607#5 -895453908#1 -895453908#0 -20720463#4 -20720463#3 -20720463#2 -20720463#1 -20720463#0 -895804527#1 -895804527#0 -895804526 20727043#0 20727043#1 20722850#1 20722850#2 20722850#3 -20722850#3"/>
    </vehicle>
    <vehicle id="14" depart="0.00" type="type1">
        <route edges="324056351#5 -20725574#2 -20725574#1 20724294#2 20724294#3 20724294#4 895413635#0 895413635#1 895413635#2 895413635#3 -895804526 20727043#0 20727043#1 -20722850#0 895804525#0 895804525#1 895804525#2 895804525#3 895804525#4 895804525#5 895804525#6 895804525#7 20723648#0"/>
    </vehicle>
    <vehicle id="15" depart="0.00" type="type1">
        <route edges="20730500#8 -20724743#4 -145323481#3 -145323481#2 -145323481#1 -145323481#0 -895453908#4 -895453908#3 -895453908#2 -895453908#1 -895453908#0 -20720463#4 -20720463#3 -20720463#2 -20720463#1 -20720463#0 -895804527#1 -895804527#0 -895804526 20727043#0 20727043#1 20727043#2 20727043#3 20729613#0 20727093#7"/>
    </vehicle>
    <vehicle id="16" depart="0.00" type="type1">
        <route edges="20719775#3 -20722988#3 -20729613#4 -20729613#3 -20724580#8 -20724580#7 -20718992#5 -20718992#4 -20718992#3 -20718992#2 -20718992#1 -20718992#0 582400366#0 582400366#1 582400366#2 582400366#3 582400366#4 582400366#5 582400366#6 895453901#0 895453901#1 895453901#2 895453901#3 895453901#4"/>
    </vehicle>
    <vehicle id="17" depart="0.00" type="type1">
        <route edges="-387287245#1 627195750#1 627195750#2 324056349#2 324056354 324056355 324056352 324056356#0 324056356#1 324056356#2 324056356#3 324056356#4 324056356#5 145323481#0 145323481#1 145323481#2 145323481#3 145323481#4 -20729818#1 20721607#11"/>
    </vehicle>
    <vehicle id="18" depart="0.00" type="type1">
        <route edges="20732235#2 -20732235#2 -20732235#1 -20732235#0 -20720463#3 -20720463#2 -20720463#1 -20720463#0 -895804527#1 -895804527#0 -895413635#3 -895413635#2 -895413635#1 -895413635#0 -895413636 20724580#0"/>
    </vehicle>
    <vehicle id="19" depart="0.00" type="type1">
        <route edges="324056356#5 -895453908#4 -895453908#3 -895453908#2 -895453908#1 -895453908#0 -895413634 895413632 20722075#0 20722075#1 -20723648#2 -20723648#1 -20723648#0 -895804525#7 -895804525#6 -895804525#5 -895804525#4 -895804525#3 -895804525#2 -895804525#1 -895804525#0 20722850#0"/>
    </vehicle>
    <vehicle id="20" depart="0.00" type="type1">
        <route edges="20725574#2 -20725574#2 -20725574#1 20724294#2 20724294#3 20724294#4 895413635#0 895413635#1 895413635#2 895413635#3 895804527#0 895804527#1 20720463#0 20720463#1 20720463#2 20720463#3 20720463#4 20720458#0 20720458#1 20720458#2 20720458#3 20720458#4 20720458#5 -20720458#5"/>
    </vehicle>
    <vehicle id="21" depart="0.00" type="type1">
        <route edges="-20726306#1 20724294#1 20724294#2 20724294#3 20724294#4 895413635#0 895413635#1 895413635#2 895413635#3 895804527#0 895804527#1 20720463#0 20720463#1 20720463#2 20720463#3 20720463#4 895453908#0 895453908#1 895453908#2 895453908#3 895453908#4 895453908#5 -20730500#4 -20730500#3"/>
    </vehicle>
    <vehicle id="22" depart="0.00" type="type1">
        <route edges="-20720966#4 -20720966#3 -20720966#2 -20720966#1 20724294#3 20724294#4 -895413636 20724580#0 20724580#1 20724580#2 20724580#3 -20722850#4 20727093#3 -20727093#3"/>
    </vehicle>
    <vehicle id="23" depart="0.00" type="type1">
        <route edges="-20722075#3 -20722075#2 -20722075#1 -20722075#0 -895413632 895413634 895453908#0 895453908#1 895453908#2 895453908#3 895453908#4 145323481#0 145323481#1 145323481#2 145323481#3 145323481#4 20729818#2 -20729818#2"/>
    </vehicle>
    <vehicle id="24" depart="0.00" type="type1">
        <route edges="20724294#2 20724294#3 20724294#4 895413635#0 895413635#1 895413635#2 895413635#3 895804527#0 895804527#1 20720463#0 20720463#1 20720463#2 20720463#3 20720463#4 -895413634 895413632 20722075#0 20722075#1 575745867#0 575745867#1 575745867#2 575745867#3 575745867#4 575745867#5 -575745867#5 -575745867#4 -575745867#3"/>
    </vehicle>
    <vehicle id="25" depart="0.00" type="type1">
        <route edges="-342245231#2 -895453908#6 -895453908#5 -895453908#4 -895453908#3 -895453908#2 -895453908#1 -895453908#0 -20720463#4 -20720463#3 -20720463#2 -20720463#1 -20720463#0 -895804527#1 -895804527#0 -895413635#3 -895413635#2 -895413635#1 -895413635#0 -20724294#4 -20724294#3 -20724294#2 -20724294#1 -20726306#0"/>
    </vehicle>
    <vehicle id="26" depart="0.00" type="type1">
        <route edges="-20727798#0 -575745867#6 -575745867#5 -575745867#4 -575745867#3 -575745867#2 -575745867#1 -575745867#0 -20723648#2 -20723648#1 -20723648#0 -895804525#7 -895804525#6 -895804525#5 -895804525#4 -895804525#3 -20719031#1 895413631#0 895413631#1"/>
    </vehicle>
    <vehicle id="27" depart="0.00" type="type1">
        <route edges="20724580#2 -20724580#2 -20724580#1 -20724580#0 895413636 -20724294#4 -20724294#3 -20724294#2 20724294#2"/>
    </vehicle>
    <vehicle id="28" depart="0.00" type="type1">
        <route edges="-20724743#3 -20724743#2 -20720458#4 -20720458#3 -20720458#2 -20720458#1 -20720458#0 -20720463#4 -20720463#3 -20720463#2 -20720463#1 -20720463#0 -895804527#1 -895804527#0 -895804526 20727043#0 20727043#1 20727043#2 20727043#3 20729613#0 20727093#7"/>
    </vehicle>
    <vehicle id="29" depart="0.00" type="type1">
        <route edges="-20724596#3 -324056351#3 -324056351#2 -324056351#1 -324056351#0 -582400375"/>
    </vehicle>
    <vehicle id="30" depart="0.00" type="type1">
        <route edges="895804525#2 895804525#3 895804525#4 895804525#5 895804525#6 895804525#7 20723648#0 20723648#1 20723648#2 -20722075#1 -20722075#0 -895413632 895413634 20720458#0 20720458#1 20720458#2 20720458#3 20720458#4 -20724743#1 20724743#1"/>
    </vehicle>
    <vehicle id="31" depart="0.00" type="type1">
        <route edges="20720463#4 -20720463#4 -20720463#3 -20720463#2 -20720463#1 -20720463#0 -895804527#1 -895804527#0 -895413635#3 -895413635#2 -895413635#1 -895413635#0 -20724294#4 -20724294#3 -20724294#2 20725574#1 20725574#2 20725574#3"/>
    </vehicle>
    <vehicle id="32" depart="0.00" type="type1">
        <route edges="324056351#1 -324056351#1 -324056351#0 -20724307#1 -20724307#0 895804527#0 895804527#1 20720463#0 20720463#1 20720463#2 20720463#3 20720463#4 -895413634 895413632 20722075#0 20722075#1 20722075#2 20722075#3 20722075#4 20730416#0"/>
    </vehicle>
    <vehicle id="33" depart="0.00" type="type1">
        <route edges="-20726306#2 -20726306#1 20724294#1 20724294#2 20724294#3 20724294#4 -895413636 20724580#0 20724580#1 20724580#2 20724580#3 20724580#4 20724580#5 20724580#6 20724580#7 20724580#8 20729613#3 20729613#4 20722988#3 -20719775#3"/>
    </vehicle>
    <vehicle id="34" depart="0.00" type="type1">
        <route edges="-20730500#4 -20730500#3 -20730500#2 -20730500#1 -20730500#0 895413645#0 895413645#1 895413645#2 895413645#3 20729779#0 -20729779#0"/>
    </vehicle>
    <vehicle id="35" depart="0.00" type="type1">
        <route edges="-20725574#3 -20725574#2 -20725574#1 20724294#2 20724294#3 20724294#4 895413635#0 895413635#1 895413635#2 895413635#3 895804527#0 895804527#1 20720463#0 20720463#1 20720463#2 20720463#3 20720463#4 -895413634 895413634"/>
    </vehicle>
    <vehicle id="36" depart="0.00" type="type1">
        <route edges="387287245#5 -387287245#5 -387287245#4 -895413646#0 -895413644#2 -895413644#1 -895413644#0 895413635#0 895413635#1 895413635#2 895413635#3 895804527#0 895804527#1 20720463#0 20720463#1 20720463#2 20720463#3 20732235#0 20732235#1 20732235#2 -20732235#2 -20732235#1"/>
    </vehicle>
    <vehicle id="37" depart="0.00" type="type1">
        <route edges="20724580#8 -20724580#8 -20724580#7 -20718992#5 -20718992#4 -20718992#3 -20718992#2 -20718992#1 -20718992#0 20722896#3 20722896#4 20722896#5 189141562 -895413628#3 -895413628#2 -895413628#1"/>
    </vehicle>
    <vehicle id="38" depart="0.00" type="type1">
        <route edges="618584809#1 -20722988#1 -20722850#6 -20722850#5 -20722850#4 -20722850#3 -20722850#2 -20722850#1 -20722850#0 895804525#0 895804525#1 895804525#2 895804525#3 895804525#4 895804525#5 895804525#6 895804525#7 -895804525#7"/>
    </vehicle>
    <vehicle id="39" depart="0.00" type="type1">
        <route edges="-20727341#7 -20725120#2 -895453908#7 -895453908#6 -895453908#5 -895453908#4 -895453908#3 -895453908#2 -895453908#1 -895453908#0 -895413634 895413632 20722075#0 20722075#1 20722075#2 20722075#3 895453901#0 895453901#1 895453901#2 -20727798#0"/>
    </vehicle>
    <vehicle id="40" depart="0.00" type="type1">
        <route edges="20720929#1 -20724307#0 -895413635#3 -895413635#2 -895413635#1 -895413635#0 -895413636 20724580#0 20724580#1 20724580#2 20724580#3 20724580#4 20724580#5 20724580#6 20724580#7 20724580#8 -20729613#2 -20729613#1"/>
    </vehicle>
    <vehicle id="41" depart="0.00" type="type1">
        <route edges="20721607#5 20721607#6 -20721607#6 -20721607#5 -895453908#1 -895453908#0 -895413634 895413632 20722075#0 20722075#1 20722075#2 20722075#3 -582400366#6 -582400366#5 -582400366#4 -582400366#3 582400366#3"/>
    </vehicle>
    <vehicle id="42" depart="0.00" type="type1">
        <route edges="-575745867#5 -575745867#4 -575745867#3 -575745867#2 -575745867#1 -575745867#0 -20722075#1 -20722075#0 -895413632 -20726399#6 -20726399#5"/>
    </vehicle>
    <vehicle id="43" depart="0.00" type="type1">
        <route edges="895804526 895804527#0 895804527#1 20720463#0 20720463#1 20720463#2 20720463#3 20720463#4 20720458#0"/>
    </vehicle>
    <vehicle id="44" depart="0.00" type="type1">
        <route edges="-20721607#5 -895453908#1 -895453908#0 20720458#0 20720458#1 20720458#2 20720458#3 20720458#4 20720458#5 20720458#6 -20720458#6"/>
    </vehicle>
    <vehicle id="45" depart="0.00" type="type1">
        <route edges="-20722850#3 -20722850#2 20722850#2 20722850#3 20722850#4 20724580#4 20724580#5 20724580#6 20724580#7"/>
    </vehicle>
    <vehicle id="46" depart="0.00" type="type1">
        <route edges="20730416#0 -20730416#0 -20722075#4 -20722075#3 -20722075#2 -20723648#2 -20723648#1 -20723648#0 -895804525#7 -895804525#6 -895804525#5 -895804525#4 -895804525#3 -895804525#2 -895804525#1 -895804525#0 20722850#0 20722850#1 20722850#2 20722850#3 -20727093#2 -20727093#1 -20727093#0 -895413637#4"/>
    </vehicle>
    <vehicle id="47" depart="0.00" type="type1">
        <route edges="-20720929#1 20720929#1 -20724307#0 -895804526 20727043#0 20727043#1 20722850#1 20722850#2 20722850#3 20722850#4 20722850#5 20722850#6 20722850#7 -618572337#1"/>
    </vehicle>
    <vehicle id="48" depart="0.00" type="type1">
        <route edges="895804525#7 -895804525#7 -895804525#6 -895804525#5 -895804525#4 -895804525#3 -895804525#2 -895804525#1 -895804525#0 20722850#0 -20727043#1 -20727043#0 895804526 20724307#0 -20720929#1 20720929#1"/>
    </vehicle>
    <vehicle id="49" depart="0.00" type="type1">
        <route edges="895453901#0 895453901#1 -895453901#1 -895453901#0 -20722075#3 -20722075#2 -20722075#1 -20722075#0 -895413632 895413634 895453908#0 895453908#1 895453908#2 895453908#3 895453908#4 895453908#5 895453908#6 342245231#2 342245231#3 342245231#4 342245231#5"/>
    </vehicle>
</routes>
