<routes xmlns:xsi="http://www.w3.org/2001/XMLSchema-instance" xsi:noNamespaceSchemaLocation="http://sumo.dlr.de/xsd/routes_file.xsd">
    <vehicle id="0" depart="0.0">
        <route edges="-20725940#7 387287245#3 -895413646#0 -895413644#2 -895413644#1 -895413644#0 -895413636 20724580#0 20724580#1 20724580#2 20724580#3 20724580#4 20724580#5 20724580#6 20724580#7 20724580#8 20729613#3 20729613#4 20722988#3 -20719775#3" />
    </vehicle>
    <vehicle id="1" depart="0.0">
        <route edges="20730500#9 -20729818#2 -145323481#4 -145323481#3 -145323481#2 -145323481#1 -145323481#0 -895453908#4 -895453908#3 -895453908#2 -895453908#1 -895453908#0 -20720463#4 -20720463#3 -20720463#2 -20720463#1 -20720463#0 -895804527#1 -895804527#0 -895413635#3 -895413635#2 -895413635#1 -895413635#0 -20724294#4 -20724294#3 -20720966#0 387295619 20721723#3 387295620" />
    </vehicle>
    <vehicle id="2" depart="0.0">
        <route edges="-627195740#3 20725574#0 20724294#2 20724294#3 20724294#4 895413635#0 895413635#1 895413635#2 895413635#3 895804527#0 895804527#1 20720463#0 20720463#1 20720463#2 20720463#3 20720463#4 20720458#0 20720458#1 20720458#2 -20725535#0 -20726399#2 -20726399#1 -20719744#3 20719744#3" />
    </vehicle>
    <vehicle id="3" depart="0.0">
        <route edges="-20728485#2 -20728485#1 -20732189#0 20729595#0 20729595#1 20729595#2 -20720458#6 20729818#0 20729818#1 20729818#2 20729818#3 -342245231#6" />
    </vehicle>
    <vehicle id="4" depart="0.0">
        <route edges="-20732189#2 20718094#1 20719744#1 20719744#2 20719744#3 20726399#1 20726399#2 20725535#0 -20720458#2 -20720458#1 -20720458#0 -20720463#4 -20720463#3 -20720463#2 -20720463#1 -20720463#0 -895804527#1 -895804527#0 -895413635#3 -895413635#2 -895413635#1 -895413635#0 -20724294#4 -20724294#3 20720966#1 20720966#2" />
    </vehicle>
    <vehicle id="5" depart="0.0">
        <route edges="20729595#1 20729595#2 -20720458#6 -20720458#5 -20720458#4 -20720458#3 -20720458#2 -20720458#1 -20720458#0 -20720463#4 -20720463#3 -20720463#2 -20720463#1 -20720463#0 -895804527#1 -895804527#0 -895413635#3 -895413635#2 -895413635#1 -895413635#0 -895413636 20724580#0 20724580#1 20724580#2 20724580#3 20722850#5 20722850#6 20722988#1 -618584809#1" />
    </vehicle>
    <vehicle id="6" depart="0.0">
        <route edges="20722896#1 20722896#2 582400366#0 582400366#1 582400366#2 582400366#3 582400366#4 582400366#5 582400366#6 -20722075#3 -20722075#2 -20722075#1 -20722075#0 -895413632 895413634 895453908#0 895453908#1 895453908#2 895453908#3 895453908#4 895453908#5 895453908#6 895453908#7 20725120#2 20725120#3 20725120#4 20725120#5 -20724743#6" />
    </vehicle>
    <vehicle id="7" depart="0.0">
        <route edges="-20727093#5 -20727093#4 -20718992#4 -20718992#3 -20718992#2 -20727043#2 -20727043#1 -20727043#0 895804526 895804527#0 895804527#1 20720463#0 20720463#1 20720463#2 20720463#3 20720463#4 895453908#0 895453908#1 895453908#2 895453908#3 895453908#4 895453908#5 895453908#6 895453908#7 20725120#2 20725120#3 20725535#6" />
    </vehicle>
    <vehicle id="8" depart="0.0">
        <route edges="387287245#4 -387287245#4 -895413646#0 -895413644#2 -895413644#1 -895413644#0 895413635#0 895413635#1 895413635#2 895413635#3 895804527#0 895804527#1 20720463#0 20720463#1 20720463#2 20720463#3 20720463#4 -895413634 895413632 20722075#0 20722075#1 20722075#2 20722075#3 20722075#4 20730416#0 20730416#1 20730416#2 20730416#3" />
    </vehicle>
    <vehicle id="9" depart="0.0">
        <route edges="387295620 20725574#0 20724294#2 20724294#3 20724294#4 895413635#0 895413635#1 895413635#2 895413635#3 895804527#0 895804527#1 20720463#0 20720463#1 20720463#2 20720463#3 20720463#4 895453908#0 895453908#1 895453908#2 895453908#3 895453908#4 145323481#0 145323481#1 145323481#2 20720402#2 20730500#8" />
    </vehicle>
    <vehicle id="10" depart="0.0">
        <route edges="-387295620 387295620 20725574#0 20724294#2 20724294#3 20724294#4 895413635#0 895413635#1 895413635#2 895413635#3 -895804526 20727043#0 20727043#1 -20722850#0 -20722896#3 -20722896#2 -20722896#1 -20722896#0" />
    </vehicle>
    <vehicle id="11" depart="0.0">
        <route edges="20722850#7 -20722850#7 -20722850#6 -20722850#5 -20722850#4 -20722850#3 -20722850#2 -20722850#1 -20722850#0 -20722896#3 582400366#0 582400366#1 582400366#2 582400366#3 582400366#4 582400366#5 582400366#6 895453901#0 895453901#1 895453901#2 895453901#3 895453901#4 -20729804#2 -20729804#1 20718094#0" />
    </vehicle>
    <vehicle id="12" depart="0.0">
        <route edges="-20724596#5 -387287245#4 -895413646#0 -895413644#2 -895413644#1 -895413644#0 895413635#0 895413635#1 895413635#2 895413635#3 895804527#0 895804527#1 20720463#0 20720463#1 20720463#2 20720463#3 20720463#4 20720458#0 20720458#1 20720458#2 20720458#3 -20720458#3" />
    </vehicle>
    <vehicle id="13" depart="0.0">
        <route edges="-20724596#0 20724596#0 20724294#4 895413635#0 895413635#1 895413635#2 895413635#3 895804527#0 895804527#1 20720463#0 20720463#1 20720463#2 20720463#3 20720463#4 895453908#0 895453908#1 895453908#2 895453908#3 895453908#4 895453908#5 895453908#6 342245231#2 342245231#3 342245231#4 342245231#5 342245231#6 342245231#7" />
    </vehicle>
    <vehicle id="14" depart="0.0">
        <route edges="-20720458#6 -20720458#5 -20720458#4 -20720458#3 -20720458#2 -20720458#1 -20720458#0 -20720463#4 -20720463#3 -20720463#2 -20720463#1 -20720463#0 -895804527#1 -895804527#0 -895413635#3 -895413635#2 -895413635#1 -895413635#0 895413644#0 20720929#5" />
    </vehicle>
    <vehicle id="15" depart="0.0">
        <route edges="20722896#0 20722896#1 20722896#2 20722896#3 895804525#0 895804525#1 895804525#2 895804525#3 895804525#4 895804525#5 895804525#6 895804525#7 20723648#0 20723648#1 20723648#2 575745867#0 575745867#1" />
    </vehicle>
    <vehicle id="16" depart="0.0">
        <route edges="20724743#4 -20724743#4 -145323481#3 -145323481#2 -145323481#1 -145323481#0 -895453908#4 -895453908#3 -895453908#2 -895453908#1 -895453908#0 -20720463#4 -20720463#3 -20720463#2 -20720463#1 -20720463#0 -895804527#1 -895804527#0 -895413635#3 -895413635#2 -895413635#1 -895413635#0 -20724294#4 -20724294#3 -20724294#2 -20725574#0 -387295620" />
    </vehicle>
    <vehicle id="17" depart="0.0">
        <route edges="-20719030#0 -582400366#2 -582400366#1 -582400366#0 20718992#0 20718992#1 -20727043#2 -20727043#1 -20727043#0 895804526 -895413635#3 -895413635#2 -895413635#1 -895413635#0 -20724294#4 -20724294#3 -20724294#2 -20724294#1 20726306#1 20720929#9" />
    </vehicle>
    <vehicle id="18" depart="0.0">
        <route edges="20732189#0 -20732189#0 20729595#0 20729595#1 20729595#2 -20720458#6 -20720458#5 -20720458#4 -20720458#3 -20720458#2 -20720458#1 -20720458#0 -20720463#4 -20720463#3 -20720463#2 -20720463#1 -20720463#0 -895804527#1 -895804527#0 -895413635#3 -895413635#2 -895413635#1 -895413635#0 895413644#0 895413644#1 895413644#2 895413646#0 895413646#1" />
    </vehicle>
    <vehicle id="19" depart="0.0">
        <route edges="20729818#1 -145323481#4 -145323481#3 -145323481#2 -145323481#1 -145323481#0 -895453908#4 -895453908#3 -895453908#2 -895453908#1 -895453908#0 -20720463#4 -20720463#3 -20720463#2 -20720463#1 -20720463#0 -895804527#1 -895804527#0 -895413635#3 -895413635#2 -895413635#1 -895413635#0 -895413636 20724580#0 20724580#1 20724580#2 20724580#3 20722850#5 20722850#6 -20722988#0 20722988#0" />
    </vehicle>
    <vehicle id="20" depart="0.0">
        <route edges="20724743#1 -20720458#4 -20720458#3 -20720458#2 -20720458#1 -20720458#0 -20720463#4 -20720463#3 -20720463#2 -20720463#1 -20720463#0 -895804527#1 -895804527#0 -895413635#3 -895413635#2 -895413635#1 -895413635#0 -20724294#4 -20724294#3 20720966#1 20720966#2 20720966#3 20720966#4 20720966#5" />
    </vehicle>
    <vehicle id="21" depart="0.0">
        <route edges="342245231#4 -20720402#3 -20720402#2 -145323481#2 -145323481#1 -145323481#0 -895453908#4 -895453908#3 -895453908#2 -895453908#1 -895453908#0 -20720463#4 -20720463#3 -20720463#2 -20720463#1 -20720463#0 -895804527#1 -895804527#0 -895413635#3 -895413635#2 -895413635#1 -895413635#0 -895413636 20724580#0 20724580#1 20724580#2 20724580#3 20724580#4 20724580#5 20724580#6 618584809#0 20726188#2" />
    </vehicle>
    <vehicle id="22" depart="0.0">
        <route edges="-20728485#2 -20728485#1 -20732189#0 20729595#0 20729595#1 20729595#2 -20720458#6 -20720458#5 -20720458#4 -20720458#3 -20720458#2 -20720458#1 -20720458#0 895453908#0 895453908#1 895453908#2 895453908#3 895453908#4 895453908#5 20730500#5" />
    </vehicle>
    <vehicle id="23" depart="0.0">
        <route edges="618572337#1 -20722850#7 -20722850#6 -20722850#5 -20724580#3 -20724580#2 -20724580#1 -20724580#0 895413636 895413635#0 895413635#1 895413635#2 895413635#3 895804527#0 895804527#1 20720463#0 20720463#1 20720463#2 20720463#3 20720463#4 20720458#0 20720458#1 20720458#2 20725535#1 20721607#8" />
    </vehicle>
    <vehicle id="24" depart="0.0">
        <route edges="-20722988#0 20722988#0 -20722850#6 -20722850#5 -20722850#4 -20722850#3 -20722850#2 -20722850#1 -20722850#0 -20722896#3 582400366#0 582400366#1 582400366#2 582400366#3 582400366#4 582400366#5 582400366#6 895453901#0 895453901#1 895453901#2 895453901#3 895453901#4 -20729804#2 -20729804#1 -20729804#0 20728485#2" />
    </vehicle>
    <vehicle id="25" depart="0.0">
        <route edges="20720966#0 20724294#3 20724294#4 895413635#0 895413635#1 895413635#2 895413635#3 895804527#0 895804527#1 20720463#0 20720463#1 20720463#2 20720463#3 20720463#4 895453908#0 895453908#1 895453908#2 895453908#3 895453908#4 895453908#5 895453908#6 342245231#2 342245231#3 342245231#4 342245231#5 -20724743#5" />
    </vehicle>
    <vehicle id="26" depart="0.0">
        <route edges="20724580#5 20724580#6 -20724580#6 -20724580#5 -20724580#4 -20724580#3 -20724580#2 -20724580#1 -20724580#0 895413636 895413635#0 895413635#1 895413635#2 895413635#3 895804527#0 895804527#1 20720463#0 20720463#1 20720463#2 20720463#3 20720463#4 895453908#0 895453908#1 895453908#2 895453908#3 895453908#4 145323481#0 145323481#1 145323481#2 145323481#3 145323481#4 20729818#2 20729818#3" />
    </vehicle>
    <vehicle id="27" depart="0.0">
        <route edges="387295622#0 -618572337#2 -20722850#7 -20722850#6 -20722850#5 -20722850#4 -20722850#3 -20722850#2 -20722850#1 -20722850#0 895804525#0 895804525#1 895804525#2 895804525#3 895804525#4 895804525#5 895804525#6 895804525#7 20723648#0 20723648#1 20723648#2 -20722075#1 -20722075#0 20728486#0 20728486#1 20728486#2 20728486#3" />
    </vehicle>
    <vehicle id="28" depart="0.0">
        <route edges="-627195740#4 20726306#0 20724294#1 20724294#2 20724294#3 20724294#4 895413635#0 895413635#1 895413635#2 895413635#3 -895804526 20727043#0 20727043#1 -20722850#0 20722896#4" />
    </vehicle>
    <vehicle id="29" depart="0.0">
        <route edges="387295620 20725574#0 20724294#2 20724294#3 20724294#4 895413635#0 895413635#1 895413635#2 895413635#3 895804527#0 895804527#1 20720463#0 20720463#1 20720463#2 20720463#3 20720463#4 20720458#0 20720458#1 20720458#2 20720458#3 20720402#0 20720402#1" />
    </vehicle>
    <vehicle id="30" depart="0.0">
        <route edges="-20720966#2 -20720966#1 20724294#3 20724294#4 895413635#0 895413635#1 895413635#2 895413635#3 895804527#0 895804527#1 20720463#0 20720463#1 20720463#2 20720463#3 20720463#4 20720458#0 20720458#1 20720458#2 20720458#3 20720402#0 20721607#9" />
    </vehicle>
    <vehicle id="31" depart="0.0">
        <route edges="20719775#2 -20719775#2 -20724580#9 -20724580#8 -20724580#7 -20724580#6 -20724580#5 -20724580#4 -20724580#3 -20724580#2 -20724580#1 -20724580#0 895413636 895413635#0 895413635#1 895413635#2 895413635#3 895804527#0 895804527#1 20720463#0 20720463#1 20720463#2 20720463#3 20720463#4 20720458#0 20720458#1 20720458#2 20720458#3 20720458#4 20720458#5 20729818#0" />
    </vehicle>
    <vehicle id="32" depart="0.0">
        <route edges="20722988#3 -20719775#3 -20719775#2 -20724580#9 -20724580#8 -20724580#7 -20724580#6 -20724580#5 -20724580#4 -20724580#3 -20724580#2 -20724580#1 -20724580#0 895413636 895413635#0 895413635#1 895413635#2 895413635#3 895804527#0 895804527#1 20720463#0 20720463#1 20720463#2 20720463#3 20720463#4 895453908#0 895453908#1 895453908#2 895453908#3 895453908#4 145323481#0 145323481#1 145323481#2 20720402#2 20720402#3" />
    </vehicle>
    <vehicle id="33" depart="0.0">
        <route edges="-20720929#6 -20724596#1 20724294#4 895413635#0 895413635#1 895413635#2 895413635#3 895804527#0 895804527#1 20720463#0 20720463#1 20720463#2 20720463#3 20720463#4 -895413634 895413632 20722075#0 20722075#1 20722075#2 20722075#3 895453901#0 895453901#1 895453901#2 895453901#3 895453901#4 -20729804#2 -20729804#1 -20729804#0" />
    </vehicle>
    <vehicle id="34" depart="0.0">
        <route edges="-20719775#2 -20724580#9 -20724580#8 -20724580#7 -20718992#5 -20718992#4 -20718992#3 -20718992#2 -20718992#1 -20718992#0 582400366#0 582400366#1 582400366#2 582400366#3 582400366#4 582400366#5 582400366#6 895453901#0 895453901#1 895453901#2 895453901#3 -20732189#4 -20732189#3 -20732189#2 -20732189#1 -20732189#0 20729595#0 20725070#1" />
    </vehicle>
    <vehicle id="35" depart="0.0">
        <route edges="-20730416#5 -20732189#5 -895453901#3 -895453901#2 -895453901#1 -895453901#0 -20722075#3 -20722075#2 -20722075#1 -20722075#0" />
    </vehicle>
    <vehicle id="36" depart="0.0">
        <route edges="-618584809#3 618572337#1 -20722850#7 -20722850#6 -20722850#5 -20722850#4 -20722850#3 -20722850#2 -20722850#1 -20722850#0 895804525#0 895804525#1 895804525#2 895804525#3 895804525#4 895804525#5 895804525#6 895804525#7 20723648#0 20723648#1 20723648#2 575745867#0 575745867#1 575745867#2 575745867#3 575745867#4 575745867#5 20719744#0" />
    </vehicle>
    <vehicle id="37" depart="0.0">
        <route edges="324056351#6 -20726306#2 -20726306#1 20724294#1 20724294#2 20724294#3 20724294#4 895413635#0 895413635#1 895413635#2 895413635#3 895804527#0 895804527#1 20720463#0 20720463#1 20720463#2 20720463#3 20720463#4 20720458#0 20720458#1 20720458#2 20720458#3 20720458#4 20724743#2 -20721607#9" />
    </vehicle>
    <vehicle id="38" depart="0.0">
        <route edges="20724743#1 -20720458#4 -20720458#3 -20720458#2 -20720458#1 -20720458#0 -895413634 895413632 20722075#0 20722075#1 20722075#2 20722075#3 20722075#4 20730416#0 20730416#1 20730416#2 20730416#3 20730416#4 20730416#5" />
    </vehicle>
    <vehicle id="39" depart="0.0">
        <route edges="-20730416#5 -20732189#5 -895453901#3 -895453901#2 -895453901#1 -895453901#0 -582400366#6 -582400366#5 -582400366#4 -582400366#3 -582400366#2 -582400366#1 -582400366#0 20718992#0 20718992#1 -20727043#2" />
    </vehicle>
    <vehicle id="40" depart="0.0">
        <route edges="-20721607#11 -20729818#0 -20720458#5 -20720458#4 -20720458#3 -20720458#2 -20720458#1 -20720458#0 -20720463#4 -20720463#3 -20720463#2 -20720463#1 -20720463#0 -895804527#1 -895804527#0 -895413635#3 -895413635#2 -895413635#1 -895413635#0 -895413636 20724580#0 20724580#1 20724580#2 20724580#3 20724580#4 20724580#5 20724580#6 618584809#0 618584809#1" />
    </vehicle>
    <vehicle id="41" depart="0.0">
        <route edges="-20730416#5 -20732189#5 -895453901#3 -895453901#2 -895453901#1 -895453901#0 -20722075#3 -20722075#2 -20722075#1 -20722075#0 -895413632 895413634 -20720463#4 -20720463#3 -20720463#2 -20720463#1 -20720463#0 -895804527#1 -895804527#0 -895413635#3 -895413635#2 -895413635#1 -895413635#0 -20724294#4 -20724294#3 -20724294#2 -20724294#1 20726306#1 20726306#2 -20726306#2" />
    </vehicle>
    <vehicle id="42" depart="0.0">
        <route edges="20724580#8 -20724580#8 -20724580#7 -20724580#6 -20724580#5 -20724580#4 -20724580#3 -20724580#2 -20724580#1 -20724580#0 895413636 895413635#0 895413635#1 895413635#2 895413635#3 895804527#0 895804527#1 20720463#0 20720463#1 20720463#2 20720463#3 20720463#4 895453908#0 895453908#1 895453908#2 895453908#3 895453908#4 895453908#5 895453908#6 342245231#2 342245231#3 342245231#4 20720402#4" />
    </vehicle>
    <vehicle id="43" depart="0.0">
        <route edges="-20720929#9 -20726306#1 20724294#1 20724294#2 20724294#3 20724294#4 895413635#0 895413635#1 895413635#2 895413635#3 20724307#0 20724307#1 -582400375 324056354 324056355 324056352" />
    </vehicle>
    <vehicle id="44" depart="0.0">
        <route edges="20726399#3 20727341#0 20727341#1 -20720458#1 -20720458#0 -20720463#4 -20720463#3 -20720463#2 -20720463#1 -20720463#0 -895804527#1 -895804527#0 20724307#0 20724307#1 20724307#2 20724307#3 387287245#2 20725940#7" />
    </vehicle>
    <vehicle id="45" depart="0.0">
        <route edges="-20727043#5 -20727043#4 -20727043#3 -20727043#2 -20727043#1 -20727043#0 895804526 895804527#0 895804527#1 20720463#0 20720463#1 20720463#2 20720463#3 20720463#4 895453908#0 895453908#1 895453908#2 895453908#3 895453908#4 145323481#0 145323481#1 145323481#2 145323481#3 20724743#4 -20730500#8" />
    </vehicle>
    <vehicle id="46" depart="0.0">
        <route edges="-20727043#5 -20727043#4 -20727043#3 -20727043#2 -20727043#1 -20727043#0 895804526 895804527#0 895804527#1 20720463#0 20720463#1 20720463#2 20720463#3 20720463#4 895453908#0 895453908#1 895453908#2 895453908#3 895453908#4 145323481#0 145323481#1 145323481#2 145323481#3 20724743#4 -20730500#8" />
    </vehicle>
    <vehicle id="47" depart="0.0">
        <route edges="-20727043#5 -20727043#4 -20727043#3 -20727043#2 -20727043#1 -20727043#0 895804526 895804527#0 895804527#1 20720463#0 20720463#1 20720463#2 20720463#3 20720463#4 895453908#0 895453908#1 895453908#2 895453908#3 895453908#4 145323481#0 145323481#1 145323481#2 145323481#3 20724743#4 -20730500#8" />
    </vehicle>
    <vehicle id="48" depart="0.0">
        <route edges="-618605760#1 20729595#2 -20720458#6 -20720458#5 -20720458#4 -20720458#3 -20720458#2 -20720458#1 -20720458#0 -20720463#4 -20720463#3 -20720463#2 -20720463#1 -20720463#0 -895804527#1 -895804527#0 -895413635#3 -895413635#2 -895413635#1 -895413635#0 -895413636 20724580#0 20724580#1 20724580#2 20724580#3 20722850#5 20722850#6 -20722988#0 20722988#0" />
    </vehicle>
    <vehicle id="49" depart="0.0">
        <route edges="-618605760#1 20729595#2 -20720458#6 -20720458#5 -20720458#4 -20720458#3 -20720458#2 -20720458#1 -20720458#0 -20720463#4 -20720463#3 -20720463#2 -20720463#1 -20720463#0 -895804527#1 -895804527#0 -895413635#3 -895413635#2 -895413635#1 -895413635#0 -895413636 20724580#0 20724580#1 20724580#2 20724580#3 20722850#5 20722850#6 -20722988#0 20722988#0" />
    </vehicle>
	
</routes>